CM
CM
CM
CE
SY apex=9
SY W0 = 0.005
SY Lwire=14.5
SY tlw = 0.06
SY tll = 2
SY lrad = Lwire - 2*tll
SY s = 0.71*Lrad/2
GW	100	1	-0	-tlw/2	-tll	0	tlw/2	-tll	W0/2
GW	101	10	0	tlw/2	0	0	s	-s	W0/2
GW	102	10	0	-tlw/2	0	0	-s	-s	W0/2
GW	103	10	0	-tlw/2	0	0	-tlw/2	-tll	W0/2
GW	104	10	0	tlw/2	0	0	tlw/2	-tll	W0/2

GM	0	0	0	0	0	0	0	apex

GE -1
GN 2 0 0 0 11 0.01
EX	0	100	1	0	1.
FR	0	5	0	0	14.2	1.0
EN
