CM
CM
CM
CM forw: 85, 90 ; back: 85, 270
CE
SY BASE=7.3
SY Xc=0
SY Yc=0
SY Phi=0

SY W0 = 0.005
SY W1=0.005

SY L0=1.006135
SY L1=0.953769
SY L2=0.950375
SY L3=0.928383

SY X1=0.466664
SY X2=0.739283
SY X3=1.084647

GW	0	9	-L0/2	0	0	L0/2	0.0	0	W0/2
GW	1	9	-L1/2	X1	0	L1/2	X1	0	W1/2
GW	2	9	-L2/2	X2	0	L2/2	X2	0	W1/2
GW	3	9	-L3/2	X3	0	L3/2	X3	0	W1/2
GM	0	0	0	0	Phi	Xc	Yc	BASE

GE -1
GN 2 0 0 0 11 0.01
EX	0	1	5	0	1.
FR,0,1,0,0,144.2
PQ -1
PT -1
RP,0,19,73,1003,-90,0,5,5
