CM
CM
CM
CM forw: 86, 90 ; back: 86, 270
CE
SY BASE=7.3
SY Xc=0
SY Yc=0
SY Phi=0

SY W0 = 0.005
SY W1=0.005

SY L0=1.012702
SY L1=0.960948
SY L2=0.942258
SY L3=0.936851

SY X1=0.469145
SY X2=0.728789
SY X3=0.95

GW	0	9	-L0/2	0	0	L0/2	0.0	0	W0/2
GW	1	9	-L1/2	X1	0	L1/2	X1	0	W1/2
GW	2	9	-L2/2	X2	0	L2/2	X2	0	W1/2
GW	3	9	-L3/2	X3	0	L3/2	X3	0	W1/2
GM	0	0	0	0	Phi	Xc	Yc	BASE

GE -1
GN 2 0 0 0 11 0.01
EX	0	1	5	0	1.
FR,0,1,0,0,144.2
PQ -1
PT -1
RP,0,36,73,1003,-89,0,5,5
