CM
CM
CM
CM forw: 86, 89 ; back: 86, 269
CE
SY BASE=7.3
SY W1=0.520649
SY WD1 = 0.001
SY S1 = 0.707 * W1


GW	1	1	-0.03	0	-s1	.03	0	-s1	WD1/2
GW	2	5	-.03	0	-s1	-s1	0	0	WD1/2
GW	3	5	-s1	0	0	0	0	s1	WD1/2
GW	4	5	0	0	s1	s1	0	0	WD1/2
GW	5	5	s1	0	0	.03	0	-s1	WD1/2

GM	0	0	0	0	0	0	0	BASE

GE -1
GN 2 0 0 0 11 0.01
EX	0	1	1	0	1.
FR,0,1,0,0,144.2
PQ -1
PT -1
RP,0,91,361,1003,-90,0,1,1
