CM
CM
CM
CE
SY base=5.3

SY W0 = 0.0005

SY h = 3.5
SY c=1.5
SY d=1.627271



GW	100	1	0	-d	c-0.050	0	-d	c+0.05	W0/2
GW	101	9	0	-d	c-0.050	0	0	0	W0/2
GW	102	9	0	-d	c+0.050	0	0	h	W0/2
GW	103	9	0	d	c-0.050	0	0	0	W0/2
GW	104	9	0	d	c+0.050	0	0	h	W0/2

GM	0	0	0	0	0	0	0	base

GE -1
GN 2 0 0 0 11 0.01
LD	5	0	0	0	58000000
LD	7	0	0	0	4.5	.0016
EX	0	100	1	0	1.
FR	0	5	0	0	14.1	1.0
EN
