CM
CM
CM
CE
SY base=5.3

SY W0 = 0.0005

SY h = 3
SY a=3.556643
SY b=3.546298
SY c=1.5
SY d=1.538983

GW	1	5	0	0	h	b/2	0	h	W0/2
GW	4	5	a/2	0	0	0	0	0	W0/2
GX	10	100


GW	100	1	0	-d	c-0.050	0	-d	c+0.05	W0/2
GW	101	3	0	-d	c-0.050	0	0	0	W0/2
GW	102	3	0	-d	c+0.050	0	0	h	W0/2

GM	0	0	0	0	0	0	0	base

GE -1
GN 2 0 0 0 11 0.01
LD	5	0	0	0	58000000
LD	7	0	0	0	4.5	.0016
EX	0	100	1	0	1.
FR	0	5	0	0	14.1	1.0
EN
