' INPUTS -----------------------------------------
'
SY FMHz=14.075		'frequency MHz
SY s = 2.5
SY wr = 0.0005
SY hbase = 5.3
GW	1	5	0	-s/2	0	0	s/2	0	wr
GW	2	5	0	s/2	0	0	s/2	s	wr
GW	3	5	0	s/2	s	0	-s/2	s	wr
GW	4	5	0	-s/2	s	0	-s/2	s/2+0.1	wr
GW	5	5	0	-s/2	0	0	-s/2	s/2-0.1	wr


GM	0	0	0	0	0	0	0	hbase

GE	-1
LD	5	0	0	0	58000000
LD	7	0	0	0	4.5	.0016
GN 2 0 0 0 11 0.01
EK
EX	0	2	3	0	1.	0
FR,0,1,0,0,14.075
PQ -1
PT -1
