CM
CM
CM
CE
SY apex = 9
SY W0 = 0.005
SY L0=20.23609
GW	100	20	0	-L0/2	0	0	L0/2	0	W0/2

GM	0	0	0	0	0	0	0	apex

GE -1
GN 2 0 0 0 11 0.01
EX	0	100	11	0	1.
FR	0	5	0	0	7.07	1.0
EN
