CM
CM
CM
CE
SY apex=9
SY W0 = 0.005
SY L0=8
SY ind=27.89899
SY s = 0.71*L0/2
GW	100	1	-0	-0.05	0	0	0.05	0	W0/2
GW	101	10	0	0.05	0	0	s	-s	W0/2
GW	102	10	0	-0.05	0	0	-s	-s	W0/2

GM	0	0	0	0	0	0	0	apex

GE -1
LD	0	101	6	6	0	ind*1e-6
LD	0	102	6	6	0	ind*1e-6
GN 2 0 0 0 11 0.01
EX	0	100	1	0	1.
FR	0	5	0	0	7.07	1.0
EN
