CM
CM
CM
CE
SY BASE=7.3

SY W0=5.026e-3

SY L0=1.953739
SY Ld=0.3
GW	101	2	-L0/2	0	0	-L0/2	0	-ld	W0/2
GW	102	2	L0/2	0	0	L0/2	0	-ld	W0/2
GX	10	001


GW	100	9	-L0/2	0	0	L0/2	0	0	W0/2

GM	0	0	0	0	0	0	0	BASE

GE -1
GN 2 0 0 0 11 0.01
EX	0	100	5	0	1.
FR	0	5	0	0	50.313	1.0
EN
