CM
CM
CM
CE
SY BASE=7.3

SY W0 = 0.005
SY h=0.030048

SY hL0=2
SY zfd=0.462887
SY lfd=0.069622
SY lhp=3.083912

GW	1	5	lfd	0	zfd	hL0	0	zfd	W0/2
GX	10	100


GW	101	2	-lfd	0	0	-lfd	0	zfd	W0/2
GW	102	2	lfd	0	0	lfd	0	zfd	W0/2
GW	103	1	-lfd	0	0	lfd	0	0	W0/2
GW	104	3	-lfd	0	zfd	-lfd	0	lhp	W0/2
GW	105	3	lfd	0	zfd	lfd	0	lhp	W0/2
GW	106	1	-lfd	0	lhp	lfd	0	lhp	W0/2


GM	0	0	0	0	0	0	0	BASE

GE -1
GN 2 0 0 0 11 0.01
EX	0	103	1	0	1.
FR	0	5	0	0	50.313	1.0
EN
