CM Length L in mtr. = 0.1
CM Radius R1 in cm. = 120
CM Radius R2 in cm. = 120
CM Number of turns = 2
CM Segments per turn = 32
CM Rotate X, Y, Z = 90, 0, 0
CM Move X, Y, Z = 0, 0, 0
CE
GW   100    1      1.2       .0       .0    1.177  .001563 -.234108     .005
GW   101    1    1.177  .001563 -.234108    1.109  .003125  -.45922     .005
GW   102    1    1.109  .003125  -.45922  .997764  .004688 -.666684     .005
GW   103    1  .997764  .004688 -.666684  .848528   .00625 -.848528     .005
GW   104    1  .848528   .00625 -.848528  .666684  .007813 -.997764     .005
GW   105    1  .666684  .007813 -.997764   .45922  .009375   -1.109     .005
GW   106    1   .45922  .009375   -1.109  .234108  .010938   -1.177     .005
GW   107    1  .234108  .010938   -1.177       .0    .0125     -1.2     .005
GW   108    1       .0    .0125     -1.2 -.234108  .014063   -1.177     .005
GW   109    1 -.234108  .014063   -1.177  -.45922  .015625   -1.109     .005
GW   110    1  -.45922  .015625   -1.109 -.666684  .017188 -.997764     .005
GW   111    1 -.666684  .017188 -.997764 -.848528   .01875 -.848528     .005
GW   112    1 -.848528   .01875 -.848528 -.997764  .020313 -.666684     .005
GW   113    1 -.997764  .020313 -.666684   -1.109  .021875  -.45922     .005
GW   114    1   -1.109  .021875  -.45922   -1.177  .023438 -.234108     .005
GW   115    1   -1.177  .023438 -.234108     -1.2     .025       .0     .005
GW   116    1     -1.2     .025       .0   -1.177  .026563  .234108     .005
GW   117    1   -1.177  .026563  .234108   -1.109  .028125   .45922     .005
GW   118    1   -1.109  .028125   .45922 -.997764  .029688  .666684     .005
GW   119    1 -.997764  .029688  .666684 -.848528   .03125  .848528     .005
GW   120    1 -.848528   .03125  .848528 -.666684  .032812  .997764     .005
GW   121    1 -.666684  .032812  .997764  -.45922  .034375    1.109     .005
GW   122    1  -.45922  .034375    1.109 -.234108  .035937    1.177     .005
GW   123    1 -.234108  .035937    1.177       .0    .0375      1.2     .005
GW   124    1       .0    .0375      1.2  .234108  .039062    1.177     .005
GW   125    1  .234108  .039062    1.177   .45922  .040625    1.109     .005
GW   126    1   .45922  .040625    1.109  .666684  .042187  .997764     .005
GW   127    1  .666684  .042187  .997764  .848528   .04375  .848528     .005
GW   128    1  .848528   .04375  .848528  .997764  .045313  .666684     .005
GW   129    1  .997764  .045313  .666684    1.109  .046875   .45922     .005
GW   130    1    1.109  .046875   .45922    1.177  .048438  .234108     .005
GW   131    1    1.177  .048438  .234108      1.2      .05       .0     .005
GW   132    1      1.2      .05       .0    1.177  .051563 -.234108     .005
GW   133    1    1.177  .051563 -.234108    1.109  .053125  -.45922     .005
GW   134    1    1.109  .053125  -.45922  .997764  .054688 -.666684     .005
GW   135    1  .997764  .054688 -.666684  .848528   .05625 -.848528     .005
GW   136    1  .848528   .05625 -.848528  .666684  .057813 -.997764     .005
GW   137    1  .666684  .057813 -.997764   .45922  .059375   -1.109     .005
GW   138    1   .45922  .059375   -1.109  .234108  .060938   -1.177     .005
GW   139    1  .234108  .060938   -1.177       .0    .0625     -1.2     .005
GW   140    1       .0    .0625     -1.2 -.234108  .064063   -1.177     .005
GW   141    1 -.234108  .064063   -1.177  -.45922  .065625   -1.109     .005
GW   142    1  -.45922  .065625   -1.109 -.666684  .067188 -.997764     .005
GW   143    1 -.666684  .067188 -.997764 -.848528   .06875 -.848528     .005
GW   144    1 -.848528   .06875 -.848528 -.997764  .070313 -.666684     .005
GW   145    1 -.997764  .070313 -.666684   -1.109  .071875  -.45922     .005
GW   146    1   -1.109  .071875  -.45922   -1.177  .073438 -.234108     .005
GW   147    1   -1.177  .073438 -.234108     -1.2     .075       .0     .005
GW   148    1     -1.2     .075       .0   -1.177  .076563  .234108     .005
GW   149    1   -1.177  .076563  .234108   -1.109  .078125   .45922     .005
GW   150    1   -1.109  .078125   .45922 -.997764  .079688  .666684     .005
GW   151    1 -.997764  .079688  .666684 -.848528   .08125  .848528     .005
GW   152    1 -.848528   .08125  .848528 -.666684  .082813  .997764     .005
GW   153    1 -.666684  .082813  .997764  -.45922  .084375    1.109     .005
GW   154    1  -.45922  .084375    1.109 -.234108  .085937    1.177     .005
GW   155    1 -.234108  .085937    1.177       .0    .0875      1.2     .005
GW   156    1       .0    .0875      1.2  .234108  .089062    1.177     .005
GW   157    1  .234108  .089062    1.177   .45922  .090625    1.109     .005
GW   158    1   .45922  .090625    1.109  .666684  .092188  .997764     .005
GW   159    1  .666684  .092188  .997764  .848528   .09375  .848528     .005
GW   160    1  .848528   .09375  .848528  .997764  .095313  .666684     .005
GW   161    1  .997764  .095313  .666684    1.109  .096875   .45922     .005
GW   162    1    1.109  .096875   .45922    1.177  .098438  .234108     .005
GW   163    1    1.177  .098438  .234108      1.2       .1       .0     .005
GE 0
