CM
CM
CM
CM forw: 0, 0 ; back: 0, 0
CE
SY a=9
SY W0 = 0.005
SY z1=5.786596
SY z2=5.151692
SY z3=5.745943
SY w1=0.303776
SY w2=0.299465
SY w3=0.298128
SY x1=0.50004
SY x2=1.499771
SY x3=2.494584
GW	1	3	0	0.05	a	0	x1	a-x1	W0/2
GW	2	3	0	x1	a-x1	0	x1	z1	W0/2
GW	3	1	0	x1	z1	0	x1+w1	z1	W0/2
GW	4	3	0	x1+w1	z1	0	x1+w1	a-x1-w1	W0/2
GW	5	3	0	x1+w1	a-x1-w1	0	x2	a-x2	W0/2
GW	6	3	0	x2	a-x2	0	x2	z2	W0/2
GW	7	1	0	x2	z2	0	x2+w2	z2	W0/2
GW	8	3	0	x2+w2	z2	0	x2+w2	a-x2-w2	W0/2
GW	9	3	0	x2+w2	a-x2-w2	0	x3	a-x3	W0/2
GW	10	3	0	x3	a-x3	0	x3	z3	W0/2
GW	11	1	0	x3	z3	0	x3+w3	z3	W0/2
GW	12	3	0	x3+w3	z3	0	x3+w3	a-x3-w3	W0/2
GW	13	3	0	x3+w3	a-x3-w3	0	3	a-3	W0/2
GX	50	010
GW	1000	1	-0	-0.05	a	0	0.05	a	W0/2

GE	-1
GN 2 0 0 0 11 0.01
EX	0	1000	1	0	1.
FR,0,1,0,0,7.1
PQ -1
PT -1
RP,0,37,1,1000,-90,0,5
