CM
CM
CM
CM forw: 0, 0 ; back: 0, 0
CE
SY apex=9
SY W0 = 0.005
SY l=3
SY w=0.354771
SY sl = l*0.71
SY sw = w*0.71

GW	1	5	0	0.15	0	0	3	-3	W0/2
GW	2	1	0	3	-3	0	3-sw	-3-sw	W0/2
GW	3	3	0	3-sw	-3-sw	0	3-sw-sl	-3-sw+sl	W0/2

GX	50	010



GW	1000	1	-0	-0.15	0	0	0.15	0	W0/2
GM	0	0	0	0	0	0	0	apex

GE -1
GN 2 0 0 0 11 0.01
EX	0	1000	1	0	1.
FR,0,1,0,0,7.1
PQ -1
PT -1
RP,0,37,1,1000,-90,0,5
