CM
CM
CM
CM forw: 50, 0 ; back: 50, 180
CE
SY BASE=7.3

SY W0 = 0.01
SY L0 = 4.95
SY lfact = 0.5
SY E = L0 * lfact /2
SY B=0.591201
SY C=0.18141
SY lfd = 0.01

GW	1	5	lfd	0	0	E-C	0	0	W0/2
GW	2	3	E-C	0	0	E-C	B	0	W0/2
GW	3	1	E-C	B	0	E	B	0	W0/2
GW	4	6	E	-B	0	E	B	0	W0/2

GX	10	100

GW	100	1	-lfd	0	0	lfd	0	0	W0/2


GM	0	0	0	0	0	0	0	BASE

GE -1
GN 2 0 0 0 11 0.01
LD	5	0	0	0	37700000
EX	0	100	1	0	1.
FR,0,1,0,0,432.2
PQ -1
PT -1
