CM
CM
CM
CM forw: 0, 0 ; back: 0, 0
CE
SY base=5.3

SY W0 = 0.0005

SY h = 3
SY a=1.9
SY c=1.5

GW	100	1	0	0	c-0.050	0	0	c+0.05	W0/2
GW	101	5	0	0	c-0.050	0	-a	0	W0/2
GW	102	5	0	0	c+0.050	0	-a	h	W0/2

GM	0	0	0	0	0	0	0	base

GE -1
GN 2 0 0 0 11 0.01
LD	5	0	0	0	58000000
LD	7	0	0	0	4.5	.0016
EX	0	100	1	0	1.
FR,0,1,0,0,28.2
PQ -1
PT -1
RP,0,37,1,1000,-90,0,5
