CM
CM
CM
CM forw: 82, 0 ; back: 82, 180
CE
SY FH=7.3

SY W0 = 0.0005
SY h=0.030048

SY hL0=1.5
SY hw2=0.605113
SY hw1=0.404567
SY alpha = 1
SY whp=0.083675

GW	1	4	0	hw1	whp/2	0	hw2	hL0*alpha	W0/2
GW	2	2	0	hw2	hL0*alpha	0	0	hL0	W0/2
GW	3	2	0	hw1	whp/2	0	0	whp/2	W0/2
GX	10	010
GX	10	001


GW	100	1	0	0	-whp/2	0	0	whp/2	W0/2

GM	0	0	0	0	0	0	0	FH

GE -1
GN 2 0 0 0 11 0.01
LD	5	0	0	0	58000000
LD	7	0	0	0	4.5	.0016
EX	0	100	1	0	1.
FR,0,1,0,0,28.2
PQ -1
PT -1
