CM
CM
CM
CM forw: 50, 70 ; back: 50, 250
CE
SY FH=7.3

SY W0 = 0.0005
SY h=0.030048

SY h=3
SY a0=0.379901
SY a1=3
SY hw1=0.586508
SY hw0=0.499754

GW	1	5	0	hw0	0	0	0	a0	W0/2
GW	3	5	0	0	a1	0	hw1	h	W0/2
GX	10	010


GW	100	5	0	0	a0	0	0	a1	W0/2

GM	0	0	0	0	0	0	0	FH

GE -1
GN 2 0 0 0 11 0.01
LD	5	0	0	0	58000000
LD	7	0	0	0	4.5	.0016
EX	0	100	3	0	1.
FR,0,1,0,0,28.2
PQ -1
PT -1
