CM
CM
CM
CM forw: 0, 0 ; back: 0, 180
CE
SY FH=7.3

SY W0 = 0.0005
SY h=0.172782

SY hL0=1.25
SY hL1=0.511217
SY lfd=0.06


GW	1	5	lfd/2	0	0	hL0	0	0	W0/2
GW	2	1	hL0	0	0	hL0	0	-H	W0/2
GW	3	3	hL0	0	-H	hL1	0	-H	W0/2
GW	4	1	hL1	0	-H	hL1	0	-2*H	W0/2
GW	5	5	hL1	0	-2*H	hL0	0	-2*H	W0/2
GX	10	100
GW	100	1	-lfd/2	0	0	lfd/2	0	0	W0/2
GM	0	0	0	90	0	0	0	FH

GE -1
GN 2 0 0 0 11 0.01
LD	5	0	0	0	37700000
EX	0	100	1	0	1.
FR,0,1,0,0,28.2
PQ -1
PT -1
