CM
CM
CM
CM forw: 86, 90 ; back: 86, 270
CE
SY BASE=7.3
SY W0=0.57977

GW	1	5	-W0/2	0	0	W0/2	0	0	.005
GW	2	5	W0/2	0	0	W0/2	0	W0	.005
GW	3	5	W0/2	0	W0	-W0/2	0	W0	0.005
GW	4	5	-W0/2	0	W0	-W0/2	0	0	.005

GM	0	0	0	0	0	0	0	BASE

GE -1
GN 2 0 0 0 11 0.01
EX	0	1	3	0	1.
FR,0,1,0,0,144.2
PQ -1
PT -1
RP,0,36,73,1003,-89,0,5,5
