CM
CM
CM
CE
SY FH=7.3

SY W0 = 0.0005
SY h=0.030048

SY hL0=1.5
SY hw1=0.523066
SY hw0=0.464262
SY whp=0.94511
SY fzo=1.526308
SY fz = fzo-hl0

GW	1	5	0	0	hl0	0	hw1	hL0	W0/2
GW	4	5	0	hw0	-hL0	0	0	-hL0	W0/2
GX	10	010


GW	100	1	0	0	fz-0.050	0	0	fz+0.05	W0/2
GW	101	3	0	0	fz-0.050	0	0	-hl0	W0/2
GW	102	3	0	0	fz+0.050	0	0	hl0	W0/2

GM	0	0	0	0	0	0	0	FH

GE -1
GN 2 0 0 0 11 0.01
LD	5	0	0	0	58000000
LD	7	0	0	0	4.5	.0016
EX	0	100	1	0	1.
FR	0	5	0	0	28.2	1.0
EN
