CM
CM
CM
CE
SY FH=7.3

SY W0 = 0.0005
SY h=0.030048

SY hL0=1.5
SY hw=0.682623
SY alpha = 1
SY whp=0.05

GW	1	5	0	0	whp/2	0	hw	hL0*alpha	W0/2
GW	2	5	0	hw	hL0*alpha	0	0	hL0	W0/2
GM	1	3	0	0	90
GX	10	001


GW	100	1	0	0	-whp/2	0	0	whp/2	W0/2

GM	0	0	0	0	0	0	0	FH

GE -1
GN 2 0 0 0 11 0.01
LD	5	0	0	0	58000000
LD	7	0	0	0	4.5	.0016
EX	0	100	1	0	1.
FR	0	5	0	0	28.2	1.0
EN
