CM
CM forw: 0, 0 ; back: 180, 180
CE
SY w=0.053013
SY nw = 5
SY dw = w/(nw-1)
SY lf=0.037308
SY lp=0.14076
SY nlp = 6
SY dlp = lp /(nlp-1)
SY y0 = lf/2 + 0*dlp
SY y1 = lf/2 + 1*dlp
SY y2 = lf/2 + 2*dlp
SY y3 = lf/2 + 3*dlp
SY y4 = lf/2 + 4*dlp
SY y5 = lf/2 + 5*dlp
SY y6 = lf/2 + 6*dlp

GW	999	1	0.000	-y0	0.000	0.000	 y0	0.000	0.0005
GW	2	6	-3*dw	-y6	0.000	3*dw	-y6	0.000  	0.0005
GW 	2 	6 	-3*dw	-y5	0.000 	3*dw  	-y5	0.000 	0.0005
GW 	2 	6	-3*dw	-y4	0.000 	3*dw  	-y4	0.000  	0.0005
GW 	2 	6	-3*dw  	-y3 	0.000 	3*dw  	-y3	0.000  	0.0005
GW 	2 	6	-3*dw  	-y2 	0.000 	3*dw  	-y2 	0.000  	0.0005
GW 	2 	6	-3*dw  	-y1  	0.000 	3*dw  	-y1  	0.000  	0.0005
GW 	2 	6	-3*dw  	-y0  	0.000 	3*dw  	-y0  	0.000 	0.0005
GW 	2 	6	-3*dw  	-y6  	0.000 	-3*dw  	-y0  	0.000  0.0005
GW 	2 	6	-2*dw  	-y6  	0.000 	-2*dw  	-y0  	0.000  0.0005
GW 	2 	6	-dw	-y6 	0.000 	-dw  	-y0  	0.000  0.0005
GW 	2 	6 	0.000	-y6 	0.000 	0.000  	-y0  	0.000  0.0005
GW 	2 	6	dw	-y6 	0.000 	dw  	-y0  	0.000  0.0005
GW 	2 	6	2*dw	-y6 	0.000 	2*dw  	-y0  	0.000  0.0005
GW 	2 	6 	3*dw  	-y6  	0.000 	3*dw  	-y0  	0.000  0.0005
GW 	3 	6 	-3*dw  	y0  	0.000 	3*dw  	y0  	0.000  0.0005
GW 	3 	6 	-3*dw  	y1  	0.000 	3*dw  	y1  	0.000  0.0005
GW 	3 	6 	-3*dw  	y2  	0.000 	3*dw  	y2  	0.000  0.0005
GW	3	6	-3*dw	y3	0.000	3*dw	y3	0.000	0.0005
GW 	3 	6 	-3*dw  	y4  	0.000 	3*dw  	y4  	0.000  0.0005
GW 	3 	6 	-3*dw  	y5  	0.000 	3*dw  	y5  	0.000  0.0005
GW 	3 	6 	-3*dw  	y6  	0.000 	3*dw  	y6  	0.000  0.0005
GW 	3 	6 	-3*dw  	y0  	0.000 	-3*dw  	y6  	0.000  0.0005
GW 	3 	6 	-2*dw  	y0  	0.000 	-2*dw  	y6  	0.000  0.0005
GW 	3 	6 	-dw  	y0  	0.000 	-dw  	y6  	0.000  0.0005
GW 	3 	6 	0.000  	y0  	0.000 	0.000  	y6  	0.000  0.0005
GW 	3 	6 	dw  	y0  	0.000 	dw  	y6  	0.000  0.0005
GW 	3 	6 	2*dw  	y0  	0.000 	2*dw  	y6  	0.000  0.0005
GW 	3 	6 	3*dw  	y0  	0.000 	3*dw  	y6  	0.000  0.0005
GE 0
EK
LD 5 2 0 0 1000000000000.0 0.0 0.0
LD 5 3 0 0 1000000000000.0 0.0 0.0
EX 0 999 1 0 1 0
FR,0,1,0,0,300
PQ -1
PT -1
