CM
CM
CM
CE
SY BASE=7.3
SY Xc=0
SY Yc=0
SY Phi=0

SY W0 = 0.01
SY W1=0.01

SY L0=0.994548
SY L1=0.947154
SY L2=0.90077
SY L3=0.906225
SY L4=0.798834


SY X1=0.459736
SY X2=0.721713
SY X3=1.054606
SY X4=1.381187


GW	0	9	-L0/2	0	0	L0/2	0.0	0	W0/2
GW	1	9	-L1/2	X1	0	L1/2	X1	0	W1/2
GW	2	9	-L2/2	X2	0	L2/2	X2	0	W1/2
GW	3	9	-L3/2	X3	0	L3/2	X3	0	W1/2
GW	4	9	-L4/2	X4	0	L4/2	X4	0	W1/2
GM	0	0	0	0	Phi	Xc	Yc	BASE

GE -1
GN 2 0 0 0 11 0.01
EX	0	1	5	0	1.
FR	0	5	0	0	144.2	1.0
EN
