CM
CM
CM
CM forw: 85, 90 ; back: 85, 270
CE
SY BASE=7.3
SY hs = 0.25
SY wd = 0.001
SY Y1=-0.25
SY s1=1.05
SY Y2=0.25
SY s2=0.95
SY Y3 = 0.5
SY s3=0.94488


GW	1	5	-hs	0	-hs	hs	0	-hs	wd/2
GW	2	5	hs	0	-hs	hs	0	hs	wd/2
GW	3	5	hs	0	hs	-hs	0	hs	wd/2
GW	4	5	-hs	0	hs	-hs	0	-hs	wd/2
GS	0	0	1/(s1*s2)

GM	10	1	0	0	0	0	y1	0
GS	0	0	s1/2

GM	10	1	0	0	0	0	-y1+y2	0	11
GS	0	0	s2


GM	0	0	0	0	0	0	0	BASE

GE -1
GN 2 0 0 0 11 0.01
LD	5	0	0	0	58000000
EX	0	1	3	0	1.
FR,0,1,0,0,144.2
PQ -1
PT -1
