CM
CM
CM
CM forw: 79, 89 ; back: 79, 269
CE
SY BASE=7.3

SY W0=5.026e-3

SY L0=2.928252
SY Ld=0.4
GW	100	9	-L0/2	0	0	L0/2	0	0	W0/2
GW	101	2	-L0/2	0	0	-L0/2	0	-ld	W0/2
GW	102	2	L0/2	0	0	L0/2	0	-ld	W0/2

GM	0	0	0	0	0	0	0	BASE

GE -1
GN 2 0 0 0 11 0.01
EX	0	100	5	0	1.
FR,0,1,0,0,50.313
PQ -1
PT -1
