CM
CM
CM
CM forw: 69, 89 ; back: 69, 269
CE
SY base = 5.5
SY side=1.605022
SY wd = 0.005

GW	1	10	-side/2	0	side	side/2	0	side	wd/2
GW	2	10	-side/2	0	0	side/2	0	0	wd/2
GW	3	10	side/2	0	0	side/2	0	side	wd/2
GW	4	10	-side/2	0	0	-side/2	0	side	wd/2
GM	0	0	0	0	0	0	0	base

GE -1
GN 2 0 0 0 11 0.01
EX	0	3	5	0	1.
FR,0,1,0,0,50.3
PQ -1
PT -1
