CM
CM
CM
CM forw: 81, 184 ; back: 81, 4
CE
SY apex=9
SY W0 = 0.005
SY L0=2.891981
SY s = 0.71*L0/2
GW	100	1	-0	-0.05	0	0	0.05	0	W0/2
GW	101	10	0	0.05	0	0	s	-s	W0/2
GW	102	10	0	-0.05	0	0	-s	-s	W0/2

GM	0	0	0	0	0	0	0	apex

GE -1
GN 2 0 0 0 11 0.01
EX	0	100	1	0	1.
FR,0,1,0,0,50.3
PQ -1
PT -1
